<routes>
    <flow id="flow_1" from="-h11" to="-h13" begin="0" end="1000" departSpeed="max" period="10" departPos="base" departLane="best"/>
    <flow id="flow_2" from="-h21" to="-h23" begin="0" end="1000" departSpeed="max" period="10" departPos="base" departLane="best"/>
    <flow id="flow_3" from="-v11" to="-v13" begin="0" end="1000" departSpeed="max" period="10" departPos="base" departLane="best"/>
    <flow id="flow_4" from="-v21" to="-v23" begin="0" end="1000" departSpeed="max" period="10" departPos="base" departLane="best"/>
</routes>
